BRD-K70792160 (CCN(CC)CCCCN1c2ccccc2Oc2ccc(Cl)cc12)
     RDKit          3D

 24 26  0  0  0  0  0  0  0  0999 V2000
    4.5424    2.1792    0.0392 C   0  0  0  0  0  0  0  0  0  0  0  0
    5.1392    0.8164   -0.0913 C   0  0  0  0  0  0  0  0  0  0  0  0
    4.0189   -0.1344   -0.3876 N   0  0  0  0  0  0  0  0  0  0  0  0
    4.4086   -1.3945   -0.4430 C   0  0  0  0  0  0  0  0  0  0  0  0
    4.8104   -2.6444   -0.5222 C   0  0  0  0  0  0  0  0  0  0  0  0
    3.3037    0.3559   -1.5753 C   0  0  0  0  0  0  0  0  0  0  0  0
    2.4733    1.4809   -1.3496 C   0  0  0  0  0  0  0  0  0  0  0  0
    1.2504    1.3430   -0.4378 C   0  0  0  0  0  0  0  0  0  0  0  0
    0.3540    0.2715   -1.0282 C   0  0  0  0  0  0  0  0  0  0  0  0
   -0.8968    0.1724   -0.3037 N   0  0  0  0  0  0  0  0  0  0  0  0
   -1.7772    1.2846   -0.3760 C   0  0  0  0  0  0  0  0  0  0  0  0
   -1.3813    2.4206   -1.0625 C   0  0  0  0  0  0  0  0  0  0  0  0
   -2.1629    3.5452   -1.1790 C   0  0  0  0  0  0  0  0  0  0  0  0
   -3.4250    3.5405   -0.5720 C   0  0  0  0  0  0  0  0  0  0  0  0
   -3.8389    2.3951    0.1300 C   0  0  0  0  0  0  0  0  0  0  0  0
   -3.0018    1.2859    0.2107 C   0  0  0  0  0  0  0  0  0  0  0  0
   -3.4138    0.1422    0.9138 O   0  0  0  0  0  0  0  0  0  0  0  0
   -2.5448   -0.9525    0.9825 C   0  0  0  0  0  0  0  0  0  0  0  0
   -2.9778   -2.0727    1.6846 C   0  0  0  0  0  0  0  0  0  0  0  0
   -2.1954   -3.1917    1.8174 C   0  0  0  0  0  0  0  0  0  0  0  0
   -0.9420   -3.1651    1.2141 C   0  0  0  0  0  0  0  0  0  0  0  0
    0.0409   -4.6045    1.4176 Cl  0  0  0  0  0  0  0  0  0  0  0  0
   -0.4777   -2.0794    0.5075 C   0  0  0  0  0  0  0  0  0  0  0  0
   -1.3063   -0.9940    0.4109 C   0  0  0  0  0  0  0  0  0  0  0  0
  1  2  1  0
  2  3  1  0
  3  4  1  0
  4  5  1  0
  3  6  1  0
  6  7  1  0
  7  8  1  0
  8  9  1  0
  9 10  1  0
 10 11  1  0
 11 12  2  0
 12 13  1  0
 13 14  2  0
 14 15  1  0
 15 16  2  0
 16 17  1  0
 17 18  1  0
 18 19  2  0
 19 20  1  0
 20 21  2  0
 21 22  1  0
 21 23  1  0
 23 24  2  0
 24 10  1  0
 16 11  1  0
 24 18  1  0
M  END

BRD-K92301463 (CCCCC(C)(C)[C@H](O)\C=C\[C@H]1[C@H](O)CC(=O)[C@@H]1C\C=C/CCCC(O)=O)
     RDKit          3D

 27 27  0  0  0  0  0  0  0  0999 V2000
    7.7092   -0.1189   -1.8392 C   0  0  0  0  0  0  0  0  0  0  0  0
    7.2229   -1.1782   -0.8710 C   0  0  0  0  0  0  0  0  0  0  0  0
    5.9727   -0.7152   -0.1671 C   0  0  0  0  0  0  0  0  0  0  0  0
    5.4783   -1.7299    0.7751 C   0  0  0  0  0  0  0  0  0  0  0  0
    4.2537   -1.3427    1.4984 C   0  0  0  0  0  0  0  0  0  0  0  0
    4.4499   -0.0805    2.2906 C   0  0  0  0  0  0  0  0  0  0  0  0
    3.6843   -2.4651    2.3416 C   0  0  0  0  0  0  0  0  0  0  0  0
    3.0950   -1.1463    0.4075 C   0  0  2  0  0  0  0  0  0  0  0  0
    3.7558   -0.0319   -0.3336 O   0  0  0  0  0  0  0  0  0  0  0  0
    2.1416   -0.2506    1.3567 C   0  0  0  0  0  0  0  0  0  0  0  0
    1.1659    0.2926    0.8007 C   0  0  0  0  0  0  0  0  0  0  0  0
    0.0935    1.2015    1.4673 C   0  0  1  0  0  0  0  0  0  0  0  0
    0.1202    2.2423    0.1568 C   0  0  2  0  0  0  0  0  0  0  0  0
   -0.8409    3.2392    0.7564 O   0  0  0  0  0  0  0  0  0  0  0  0
   -0.9286    1.5018   -0.8008 C   0  0  0  0  0  0  0  0  0  0  0  0
   -0.9465    0.1716   -0.4755 C   0  0  0  0  0  0  0  0  0  0  0  0
   -0.8532   -0.9170   -0.9660 O   0  0  0  0  0  0  0  0  0  0  0  0
   -1.1685    0.2027    1.0789 C   0  0  2  0  0  0  0  0  0  0  0  0
   -2.3780    1.2460    1.1472 C   0  0  0  0  0  0  0  0  0  0  0  0
   -3.6439    0.6713    0.8708 C   0  0  0  0  0  0  0  0  0  0  0  0
   -4.1824    1.1770   -0.0570 C   0  0  0  0  0  0  0  0  0  0  0  0
   -4.7449    1.7047   -1.0254 C   0  0  0  0  0  0  0  0  0  0  0  0
   -6.1045    1.2360   -1.4324 C   0  0  0  0  0  0  0  0  0  0  0  0
   -6.1883   -0.1508   -1.8254 C   0  0  0  0  0  0  0  0  0  0  0  0
   -5.8389   -1.2374   -0.9438 C   0  0  0  0  0  0  0  0  0  0  0  0
   -6.5062   -1.5913    0.2347 O   0  0  0  0  0  0  0  0  0  0  0  0
   -4.8180   -1.9309   -1.2896 O   0  0  0  0  0  0  0  0  0  0  0  0
  1  2  1  0
  2  3  1  0
  3  4  1  0
  4  5  1  0
  5  6  1  0
  5  7  1  0
  5  8  1  0
  8  9  1  6
  8 10  1  0
 10 11  2  0
 12 11  1  6
 12 13  1  0
 13 14  1  1
 13 15  1  0
 15 16  1  0
 16 17  2  0
 16 18  1  0
 18 19  1  6
 19 20  1  0
 20 21  2  0
 21 22  1  0
 22 23  1  0
 23 24  1  0
 24 25  1  0
 25 26  1  0
 25 27  2  0
 18 12  1  0
M  END

BRD-A29731977 (CCCCCC(=O)O[C@@]1(CCC2C3CCC4=CC(=O)CC[C@]4(C)C3CC[C@]12C)C(C)=O)
     RDKit          3D

 31 34  0  0  0  0  0  0  0  0999 V2000
    7.3240    0.1741    2.3033 C   0  0  0  0  0  0  0  0  0  0  0  0
    6.9600   -1.2258    1.8586 C   0  0  0  0  0  0  0  0  0  0  0  0
    5.8791   -1.1615    0.8297 C   0  0  0  0  0  0  0  0  0  0  0  0
    5.4808   -2.5370    0.3537 C   0  0  0  0  0  0  0  0  0  0  0  0
    4.3956   -2.4623   -0.6800 C   0  0  0  0  0  0  0  0  0  0  0  0
    3.1625   -1.8031   -0.1531 C   0  0  0  0  0  0  0  0  0  0  0  0
    2.3650   -2.4003    0.6046 O   0  0  0  0  0  0  0  0  0  0  0  0
    2.9007   -0.5313   -0.5023 O   0  0  0  0  0  0  0  0  0  0  0  0
    1.8692    0.3362   -0.2181 C   0  0  2  0  0  0  0  0  0  0  0  0
    1.6123    0.5213    1.2605 C   0  0  0  0  0  0  0  0  0  0  0  0
    0.1132    0.8363    1.3632 C   0  0  0  0  0  0  0  0  0  0  0  0
   -0.3179    1.1417   -0.0348 C   0  0  0  0  0  0  0  0  0  0  0  0
   -1.7679    1.0374   -0.2891 C   0  0  0  0  0  0  0  0  0  0  0  0
   -2.2521    1.8752   -1.4434 C   0  0  0  0  0  0  0  0  0  0  0  0
   -3.7291    1.5148   -1.6596 C   0  0  0  0  0  0  0  0  0  0  0  0
   -4.2794    0.8464   -0.4492 C   0  0  0  0  0  0  0  0  0  0  0  0
   -5.2512    1.3439    0.2907 C   0  0  0  0  0  0  0  0  0  0  0  0
   -5.7809    0.6794    1.4732 C   0  0  0  0  0  0  0  0  0  0  0  0
   -6.7431    1.2007    2.1131 O   0  0  0  0  0  0  0  0  0  0  0  0
   -5.1663   -0.6046    1.8946 C   0  0  0  0  0  0  0  0  0  0  0  0
   -3.7429   -0.6602    1.4321 C   0  0  0  0  0  0  0  0  0  0  0  0
   -3.6584   -0.4714   -0.0875 C   0  0  1  0  0  0  0  0  0  0  0  0
   -4.3971   -1.6273   -0.7023 C   0  0  0  0  0  0  0  0  0  0  0  0
   -2.2312   -0.3808   -0.5182 C   0  0  0  0  0  0  0  0  0  0  0  0
   -1.3044   -1.3396    0.1747 C   0  0  0  0  0  0  0  0  0  0  0  0
    0.0099   -1.2721   -0.5733 C   0  0  0  0  0  0  0  0  0  0  0  0
    0.5245    0.1025   -0.8044 C   0  0  2  0  0  0  0  0  0  0  0  0
    0.4944    0.4658   -2.2954 C   0  0  0  0  0  0  0  0  0  0  0  0
    2.3221    1.7486   -0.6542 C   0  0  0  0  0  0  0  0  0  0  0  0
    3.6334    1.9777   -1.2789 C   0  0  0  0  0  0  0  0  0  0  0  0
    1.5751    2.6749   -0.4731 O   0  0  0  0  0  0  0  0  0  0  0  0
  1  2  1  0
  2  3  1  0
  3  4  1  0
  4  5  1  0
  5  6  1  0
  6  7  2  0
  6  8  1  0
  9  8  1  1
  9 10  1  0
 10 11  1  0
 11 12  1  0
 12 13  1  0
 13 14  1  0
 14 15  1  0
 15 16  1  0
 16 17  2  0
 17 18  1  0
 18 19  2  0
 18 20  1  0
 20 21  1  0
 21 22  1  0
 22 23  1  6
 22 24  1  0
 24 25  1  0
 25 26  1  0
 26 27  1  0
 27 28  1  6
  9 29  1  0
 29 30  1  0
 29 31  2  0
 27  9  1  0
 27 12  1  0
 24 13  1  0
 22 16  1  0
M  END

